data/models/EPRI_Ckt24-G/fdr_05410/Loads.dss
New "Load.987250100" phases=1 kV=0.24 bus1=g2000vh9100_n283615_sec_2.3 xfkVA=23.89644958 pf=0.98 status=variable model=4 CVRwatts=0.8 CVRvars=3 conn=wye Vminpu=0.7 yearly=LS_PhaseC allocationfactor=0.8101
New "Load.986250100" phases=1 kV=0.24 bus1=g2000vh9100_n283615_sec_1.3 xfkVA=1.21662708 pf=0.98 status=variable model=4 CVRwatts=0.8 CVRvars=3 conn=wye Vminpu=0.7 yearly=LS_PhaseC allocationfactor=0.8101
New "Load.996350100" phases=1 kV=0.24 bus1=g2000wh5900_n283675_sec_2.2 xfkVA=4.67310736 pf=0.98 status=variable model=4 CVRwatts=0.8 CVRvars=3 conn=wye Vminpu=0.7 yearly=LS_PhaseB allocationfactor=1.646
New "Load.981350100" phases=1 kV=0.24 bus1=g2000wh5900_n283675_sec_1.2 xfkVA=3.22260002 pf=0.98 status=variable model=4 CVRwatts=0.8 CVRvars=3 conn=wye Vminpu=0.7 yearly=LS_PhaseB allocationfactor=1.646
New "Load.953350100" phases=1 kV=0.24 bus1=g2000vh9500_n283675_sec_14.2 xfkVA=3.38451712 pf=0.98 status=variable model=4 CVRwatts=0.8 CVRvars=3 conn=wye Vminpu=0.7 yearly=LS_PhaseB allocationfactor=1.646
New "Load.81450100" phases=1 kV=0.24 bus1=g2000vh9500_n283675_sec_13.2 xfkVA=2.81555843 pf=0.98 status=variable model=4 CVRwatts=0.8 CVRvars=3 conn=wye Vminpu=0.7 yearly=LS_PhaseB allocationfactor=1.646
New "Load.589503200" phases=1 kV=0.24 bus1=g2000vh9500_n283675_sec_12.2 xfkVA=0.61618451 pf=0.98 status=variable model=4 CVRwatts=0.8 CVRvars=3 conn=wye Vminpu=0.7 yearly=LS_PhaseB allocationfactor=1.646
New "Load.46450100" phases=1 kV=0.24 bus1=g2000vh9500_n283675_sec_11.2 xfkVA=2.98871977 pf=0.98 status=variable model=4 CVRwatts=0.8 CVRvars=3 conn=wye Vminpu=0.7 yearly=LS_PhaseB allocationfactor=1.646
New "Load.31450100" phases=1 kV=0.24 bus1=g2000vh9500_n283675_sec_10.2 xfkVA=3.4204987 pf=0.98 status=variable model=4 CVRwatts=0.8 CVRvars=3 conn=wye Vminpu=0.7 yearly=LS_PhaseB allocationfactor=1.646
New "Load.154450100" phases=1 kV=0.24 bus1=g2000vh9500_n283675_sec_9.2 xfkVA=4.01869242 pf=0.98 status=variable model=4 CVRwatts=0.8 CVRvars=3 conn=wye Vminpu=0.7 yearly=LS_PhaseB allocationfactor=1.646
New "Load.153450100" phases=1 kV=0.24 bus1=g2000vh9500_n283675_sec_8.2 xfkVA=3.24508851 pf=0.98 status=variable model=4 CVRwatts=0.8 CVRvars=3 conn=wye Vminpu=0.7 yearly=LS_PhaseB allocationfactor=1.646
New "Load.151450100" phases=1 kV=0.24 bus1=g2000vh9500_n283675_sec_7.2 xfkVA=3.15963226 pf=0.98 status=variable model=4 CVRwatts=0.8 CVRvars=3 conn=wye Vminpu=0.7 yearly=LS_PhaseB allocationfactor=1.646
New "Load.135450100" phases=1 kV=0.24 bus1=g2000vh9500_n283675_sec_6.2 xfkVA=3.26083045 pf=0.98 status=variable model=4 CVRwatts=0.8 CVRvars=3 conn=wye Vminpu=0.7 yearly=LS_PhaseB allocationfactor=1.646
New "Load.134450100" phases=1 kV=0.24 bus1=g2000vh9500_n283675_sec_5.2 xfkVA=3.05168753 pf=0.98 status=variable model=4 CVRwatts=0.8 CVRvars=3 conn=wye Vminpu=0.7 yearly=LS_PhaseB allocationfactor=1.646
New "Load.133450100" phases=1 kV=0.24 bus1=g2000vh9500_n283675_sec_4.2 xfkVA=6.06514464 pf=0.98 status=variable model=4 CVRwatts=0.8 CVRvars=3 conn=wye Vminpu=0.7 yearly=LS_PhaseB allocationfactor=1.646
New "Load.132450100" phases=1 kV=0.24 bus1=g2000vh9500_n283675_sec_3.2 xfkVA=5.37699697 pf=0.98 status=variable model=4 CVRwatts=0.8 CVRvars=3 conn=wye Vminpu=0.7 yearly=LS_PhaseB allocationfactor=1.646
New "Load.116450100" phases=1 kV=0.24 bus1=g2000vh9500_n283675_sec_2.2 xfkVA=3.12589953 pf=0.98 status=variable model=4 CVRwatts=0.8 CVRvars=3 conn=wye Vminpu=0.7 yearly=LS_PhaseB allocationfactor=1.646
New "Load.108450100" phases=1 kV=0.24 bus1=g2000vh9500_n283675_sec_1.2 xfkVA=5.60637953 pf=0.98 status=variable model=4 CVRwatts=0.8 CVRvars=3 conn=wye Vminpu=0.7 yearly=LS_PhaseB allocationfactor=1.646
New "Load.982350100" phases=1 kV=0.24 bus1=g2000wi4400_n283710_sec_7.2 xfkVA=2.5012648 pf=0.98 status=variable model=4 CVRwatts=0.8 CVRvars=3 conn=wye Vminpu=0.7 yearly=LS_PhaseB allocationfactor=1.646
New "Load.973350100" phases=1 kV=0.24 bus1=g2000wi4400_n283710_sec_6.2 xfkVA=5.67200502 pf=0.98 status=variable model=4 CVRwatts=0.8 CVRvars=3 conn=wye Vminpu=0.7 yearly=LS_PhaseB allocationfactor=1.646
New "Load.938350100" phases=1 kV=0.24 bus1=g2000wi4400_n283710_sec_5.2 xfkVA=3.2797753 pf=0.98 status=variable model=4 CVRwatts=0.8 CVRvars=3 conn=wye Vminpu=0.7 yearly=LS_PhaseB allocationfactor=1.646
New "Load.4450100" phases=1 kV=0.24 bus1=g2000wi4400_n283710_sec_4.2 xfkVA=5.31852691 pf=0.98 status=variable model=4 CVRwatts=0.8 CVRvars=3 conn=wye Vminpu=0.7 yearly=LS_PhaseB allocationfactor=1.646
New "Load.125450100" phases=1 kV=0.24 bus1=g2000wi4400_n283710_sec_3.2 xfkVA=3.32120863 pf=0.98 status=variable model=4 CVRwatts=0.8 CVRvars=3 conn=wye Vminpu=0.7 yearly=LS_PhaseB allocationfactor=1.646
New "Load.121450100" phases=1 kV=0.24 bus1=g2000wi4400_n283710_sec_2.2 xfkVA=3.11690414 pf=0.98 status=variable model=4 CVRwatts=0.8 CVRvars=3 conn=wye Vminpu=0.7 yearly=LS_PhaseB allocationfactor=1.646
New "Load.112450100" phases=1 kV=0.24 bus1=g2000wi4400_n283710_sec_1.2 xfkVA=5.39941731 pf=0.98 status=variable model=4 CVRwatts=0.8 CVRvars=3 conn=wye Vminpu=0.7 yearly=LS_PhaseB allocationfactor=1.646
New "Load.987350100" phases=1 kV=0.24 bus1=g2000vi6200_n283684_sec_13.2 xfkVA=5.08464666 pf=0.98 status=variable model=4 CVRwatts=0.8 CVRvars=3 conn=wye Vminpu=0.7 yearly=LS_PhaseB allocationfactor=1.646
New "Load.486350100" phases=1 kV=0.24 bus1=g2000vi6200_n283684_sec_12.2 xfkVA=3.05843408 pf=0.98 status=variable model=4 CVRwatts=0.8 CVRvars=3 conn=wye Vminpu=0.7 yearly=LS_PhaseB allocationfactor=1.646
New "Load.47450100" phases=1 kV=0.24 bus1=g2000vi6200_n283684_sec_11.2 xfkVA=5.85150402 pf=0.98 status=variable model=4 CVRwatts=0.8 CVRvars=3 conn=wye Vminpu=0.7 yearly=LS_PhaseB allocationfactor=1.646
New "Load.3450100" phases=1 kV=0.24 bus1=g2000vi6200_n283684_sec_10.2 xfkVA=3.267577 pf=0.98 status=variable model=4 CVRwatts=0.8 CVRvars=3 conn=wye Vminpu=0.7 yearly=LS_PhaseB allocationfactor=1.646
New "Load.149450100" phases=1 kV=0.24 bus1=g2000vi6200_n283684_sec_9.2 xfkVA=4.49224542 pf=0.98 status=variable model=4 CVRwatts=0.8 CVRvars=3 conn=wye Vminpu=0.7 yearly=LS_PhaseB allocationfactor=1.646
New "Load.148450100" phases=1 kV=0.24 bus1=g2000vi6200_n283684_sec_8.2 xfkVA=2.16543675 pf=0.98 status=variable model=4 CVRwatts=0.8 CVRvars=3 conn=wye Vminpu=0.7 yearly=LS_PhaseB allocationfactor=1.646
New "Load.147450100" phases=1 kV=0.24 bus1=g2000vi6200_n283684_sec_7.2 xfkVA=5.14536557 pf=0.98 status=variable model=4 CVRwatts=0.8 CVRvars=3 conn=wye Vminpu=0.7 yearly=LS_PhaseB allocationfactor=1.646
New "Load.127450100" phases=1 kV=0.24 bus1=g2000vi6200_n283684_sec_6.2 xfkVA=6.11686816 pf=0.98 status=variable model=4 CVRwatts=0.8 CVRvars=3 conn=wye Vminpu=0.7 yearly=LS_PhaseB allocationfactor=1.646
New "Load.123450100" phases=1 kV=0.24 bus1=g2000vi6200_n283684_sec_5.2 xfkVA=3.267577 pf=0.98 status=variable model=4 CVRwatts=0.8 CVRvars=3 conn=wye Vminpu=0.7 yearly=LS_PhaseB allocationfactor=1.646
New "Load.122450100" phases=1 kV=0.24 bus1=g2000vi6200_n283684_sec_4.2 xfkVA=5.31852691 pf=0.98 status=variable model=4 CVRwatts=0.8 CVRvars=3 conn=wye Vminpu=0.7 yearly=LS_PhaseB allocationfactor=1.646
New "Load.11450100" phases=1 kV=0.24 bus1=g2000vi6200_n283684_sec_3.2 xfkVA=3.33054476 pf=0.98 status=variable model=4 CVRwatts=0.8 CVRvars=3 conn=wye Vminpu=0.7 yearly=LS_PhaseB allocationfactor=1.646
New "Load.109450100" phases=1 kV=0.24 bus1=g2000vi6200_n283684_sec_2.2 xfkVA=3.5436402 pf=0.98 status=variable model=4 CVRwatts=0.8 CVRvars=3 conn=wye Vminpu=0.7 yearly=LS_PhaseB allocationfactor=1.646
New "Load.105450100" phases=1 kV=0.24 bus1=g2000vi6200_n283684_sec_1.2 xfkVA=2.79756764 pf=0.98 status=variable model=4 CVRwatts=0.8 CVRvars=3 conn=wye Vminpu=0.7 yearly=LS_PhaseB allocationfactor=1.646
New "Load.999350100" phases=1 kV=0.24 bus1=g2000vj0200_n283716_sec_7.2 xfkVA=2.33771218 pf=0.98 status=variable model=4 CVRwatts=0.8 CVRvars=3 conn=wye Vminpu=0.7 yearly=LS_PhaseB allocationfactor=1.646
New "Load.988350100" phases=1 kV=0.24 bus1=g2000vj0200_n283716_sec_6.2 xfkVA=5.28165942 pf=0.98 status=variable model=4 CVRwatts=0.8 CVRvars=3 conn=wye Vminpu=0.7 yearly=LS_PhaseB allocationfactor=1.646
New "Load.979350100" phases=1 kV=0.24 bus1=g2000vj0200_n283716_sec_5.2 xfkVA=4.50314893 pf=0.98 status=variable model=4 CVRwatts=0.8 CVRvars=3 conn=wye Vminpu=0.7 yearly=LS_PhaseB allocationfactor=1.646
New "Load.487350100" phases=1 kV=0.24 bus1=g2000vj0200_n283716_sec_4.2 xfkVA=5.1181068 pf=0.98 status=variable model=4 CVRwatts=0.8 CVRvars=3 conn=wye Vminpu=0.7 yearly=LS_PhaseB allocationfactor=1.646
New "Load.485350100" phases=1 kV=0.24 bus1=g2000vj0200_n283716_sec_3.2 xfkVA=3.51529108 pf=0.98 status=variable model=4 CVRwatts=0.8 CVRvars=3 conn=wye Vminpu=0.7 yearly=LS_PhaseB allocationfactor=1.646
New "Load.146450100" phases=1 kV=0.24 bus1=g2000vj0200_n283716_sec_2.2 xfkVA=2.79347882 pf=0.98 status=variable model=4 CVRwatts=0.8 CVRvars=3 conn=wye Vminpu=0.7 yearly=LS_PhaseB allocationfactor=1.646
New "Load.142450100" phases=1 kV=0.24 bus1=g2000vj0200_n283716_sec_1.2 xfkVA=5.12512593 pf=0.98 status=variable model=4 CVRwatts=0.8 CVRvars=3 conn=wye Vminpu=0.7 yearly=LS_PhaseB allocationfactor=1.646
New "Load.99450100" phases=1 kV=0.24 bus1=g2000uj3600_n283731_sec_6.2 xfkVA=4.58765112 pf=0.98 status=variable model=4 CVRwatts=0.8 CVRvars=3 conn=wye Vminpu=0.7 yearly=LS_PhaseB allocationfactor=1.646
New "Load.91450100" phases=1 kV=0.24 bus1=g2000uj3600_n283731_sec_5.2 xfkVA=3.19336499 pf=0.98 status=variable model=4 CVRwatts=0.8 CVRvars=3 conn=wye Vminpu=0.7 yearly=LS_PhaseB allocationfactor=1.646
New "Load.86450100" phases=1 kV=0.24 bus1=g2000uj3600_n283731_sec_4.2 xfkVA=3.27882124 pf=0.98 status=variable model=4 CVRwatts=0.8 CVRvars=3 conn=wye Vminpu=0.7 yearly=LS_PhaseB allocationfactor=1.646
New "Load.85450100" phases=1 kV=0.24 bus1=g2000uj3600_n283731_sec_3.2 xfkVA=6.79602043 pf=0.98 status=variable model=4 CVRwatts=0.8 CVRvars=3 conn=wye Vminpu=0.7 yearly=LS_PhaseB allocationfactor=1.646
New "Load.136450100" phases=1 kV=0.24 bus1=g2000uj3600_n283731_sec_2.2 xfkVA=4.20759571 pf=0.98 status=variable model=4 CVRwatts=0.8 CVRvars=3 conn=wye Vminpu=0.7 yearly=LS_PhaseB allocationfactor=1.646
New "Load.126450100" phases=1 kV=0.24 bus1=g2000uj3600_n283731_sec_1.2 xfkVA=2.92125431 pf=0.98 status=variable model=4 CVRwatts=0.8 CVRvars=3 conn=wye Vminpu=0.7 yearly=LS_PhaseB allocationfactor=1.646
New "Load.98450100" phases=1 kV=0.24 bus1=g2000uj6500_n283747_sec_7.2 xfkVA=1.94525402 pf=0.98 status=variable model=4 CVRwatts=0.8 CVRvars=3 conn=wye Vminpu=0.7 yearly=LS_PhaseB allocationfactor=1.646
New "Load.931250100" phases=1 kV=0.24 bus1=g2000uj6500_n283747_sec_6.2 xfkVA=5.17684945 pf=0.98 status=variable model=4 CVRwatts=0.8 CVRvars=3 conn=wye Vminpu=0.7 yearly=LS_PhaseB allocationfactor=1.646
New "Load.450100" phases=1 kV=0.24 bus1=g2000uj6500_n283747_sec_5.2 xfkVA=4.18510722 pf=0.98 status=variable model=4 CVRwatts=0.8 CVRvars=3 conn=wye Vminpu=0.7 yearly=LS_PhaseB allocationfactor=1.646
New "Load.150450100" phases=1 kV=0.24 bus1=g2000uj6500_n283747_sec_4.2 xfkVA=3.55992731 pf=0.98 status=variable model=4 CVRwatts=0.8 CVRvars=3 conn=wye Vminpu=0.7 yearly=LS_PhaseB allocationfactor=1.646
New "Load.1450100" phases=1 kV=0.24 bus1=g2000uj6500_n283747_sec_3.2 xfkVA=2.47073498 pf=0.98 status=variable model=4 CVRwatts=0.8 CVRvars=3 conn=wye Vminpu=0.7 yearly=LS_PhaseB allocationfactor=1.646
New "Load.143450100" phases=1 kV=0.24 bus1=g2000uj6500_n283747_sec_2.2 xfkVA=6.66333837 pf=0.98 status=variable model=4 CVRwatts=0.8 CVRvars=3 conn=wye Vminpu=0.7 yearly=LS_PhaseB allocationfactor=1.646
New "Load.117450100" phases=1 kV=0.24 bus1=g2000uj6500_n283747_sec_1.2 xfkVA=4.4617156 pf=0.98 status=variable model=4 CVRwatts=0.8 CVRvars=3 conn=wye Vminpu=0.7 yearly=LS_PhaseB allocationfactor=1.646
New "Load.751350100" phases=1 kV=0.24 bus1=g2000ul3200_n283772_sec_7.2 xfkVA=3.36202864 pf=0.98 status=variable model=4 CVRwatts=0.8 CVRvars=3 conn=wye Vminpu=0.7 yearly=LS_PhaseB allocationfactor=1.646
New "Load.279450100" phases=1 kV=0.24 bus1=g2000ul3200_n283772_sec_6.2 xfkVA=4.39200129 pf=0.98 status=variable model=4 CVRwatts=0.8 CVRvars=3 conn=wye Vminpu=0.7 yearly=LS_PhaseB allocationfactor=1.646
New "Load.277450100" phases=1 kV=0.24 bus1=g2000ul3200_n283772_sec_5.2 xfkVA=2.98647092 pf=0.98 status=variable model=4 CVRwatts=0.8 CVRvars=3 conn=wye Vminpu=0.7 yearly=LS_PhaseB allocationfactor=1.646
New "Load.276450100" phases=1 kV=0.24 bus1=g2000ul3200_n283772_sec_4.2 xfkVA=2.07793609 pf=0.98 status=variable model=4 CVRwatts=0.8 CVRvars=3 conn=wye Vminpu=0.7 yearly=LS_PhaseB allocationfactor=1.646
New "Load.241450100" phases=1 kV=0.24 bus1=g2000ul3200_n283772_sec_3.2 xfkVA=3.35294995 pf=0.98 status=variable model=4 CVRwatts=0.8 CVRvars=3 conn=wye Vminpu=0.7 yearly=LS_PhaseB allocationfactor=1.646
New "Load.202450100" phases=1 kV=0.24 bus1=g2000ul3200_n283772_sec_2.2 xfkVA=3.26083045 pf=0.98 status=variable model=4 CVRwatts=0.8 CVRvars=3 conn=wye Vminpu=0.7 yearly=LS_PhaseB allocationfactor=1.646
New "Load.201450100" phases=1 kV=0.24 bus1=g2000ul3200_n283772_sec_1.2 xfkVA=4.31778929 pf=0.98 status=variable model=4 CVRwatts=0.8 CVRvars=3 conn=wye Vminpu=0.7 yearly=LS_PhaseB allocationfactor=1.646
New "Load.84450100" phases=1 kV=0.24 bus1=g2000uh9400_n283633_sec_3.3 xfkVA=2.70086715 pf=0.98 status=variable model=4 CVRwatts=0.8 CVRvars=3 conn=wye Vminpu=0.7 yearly=LS_PhaseC allocationfactor=0.8101
New "Load.82450100" phases=1 kV=0.24 bus1=g2000uh9400_n283633_sec_2.3 xfkVA=3.22709772 pf=0.98 status=variable model=4 CVRwatts=0.8 CVRvars=3 conn=wye Vminpu=0.7 yearly=LS_PhaseC allocationfactor=0.8101
New "Load.141450100" phases=1 kV=0.24 bus1=g2000uh9400_n283633_sec_1.3 xfkVA=3.32829591 pf=0.98 status=variable model=4 CVRwatts=0.8 CVRvars=3 conn=wye Vminpu=0.7 yearly=LS_PhaseC allocationfactor=0.8101
New "Load.960350100" phases=1 kV=0.24 bus1=g2000ui5400_n283699_sec_6.3 xfkVA=3.33054476 pf=0.98 status=variable model=4 CVRwatts=0.8 CVRvars=3 conn=wye Vminpu=0.7 yearly=LS_PhaseC allocationfactor=0.8101
New "Load.95450100" phases=1 kV=0.24 bus1=g2000ui5400_n283699_sec_5.3 xfkVA=4.12370684 pf=0.98 status=variable model=4 CVRwatts=0.8 CVRvars=3 conn=wye Vminpu=0.7 yearly=LS_PhaseC allocationfactor=0.8101
New "Load.90450100" phases=1 kV=0.24 bus1=g2000ui5400_n283699_sec_4.3 xfkVA=5.7300662 pf=0.98 status=variable model=4 CVRwatts=0.8 CVRvars=3 conn=wye Vminpu=0.7 yearly=LS_PhaseC allocationfactor=0.8101
New "Load.80450100" phases=1 kV=0.24 bus1=g2000ui5400_n283699_sec_3.3 xfkVA=4.0501763 pf=0.98 status=variable model=4 CVRwatts=0.8 CVRvars=3 conn=wye Vminpu=0.7 yearly=LS_PhaseC allocationfactor=0.8101
New "Load.145450100" phases=1 kV=0.24 bus1=g2000ui5400_n283699_sec_2.3 xfkVA=7.64117862 pf=0.98 status=variable model=4 CVRwatts=0.8 CVRvars=3 conn=wye Vminpu=0.7 yearly=LS_PhaseC allocationfactor=0.8101
New "Load.100450100" phases=1 kV=0.24 bus1=g2000ui5400_n283699_sec_1.3 xfkVA=3.42949409 pf=0.98 status=variable model=4 CVRwatts=0.8 CVRvars=3 conn=wye Vminpu=0.7 yearly=LS_PhaseC allocationfactor=0.8101
New "Load.997350100" phases=1 kV=0.24 bus1=g2000uk1100_n283753_sec_5.3 xfkVA=9.3956894 pf=0.98 status=variable model=4 CVRwatts=0.8 CVRvars=3 conn=wye Vminpu=0.7 yearly=LS_PhaseC allocationfactor=0.8101
New "Load.974350100" phases=1 kV=0.24 bus1=g2000uk1100_n283753_sec_4.3 xfkVA=4.46621329 pf=0.98 status=variable model=4 CVRwatts=0.8 CVRvars=3 conn=wye Vminpu=0.7 yearly=LS_PhaseC allocationfactor=0.8101
New "Load.96450100" phases=1 kV=0.24 bus1=g2000uk1100_n283753_sec_3.3 xfkVA=3.45198258 pf=0.98 status=variable model=4 CVRwatts=0.8 CVRvars=3 conn=wye Vminpu=0.7 yearly=LS_PhaseC allocationfactor=0.8101
New "Load.954350100" phases=1 kV=0.24 bus1=g2000uk1100_n283753_sec_2.3 xfkVA=3.42724525 pf=0.98 status=variable model=4 CVRwatts=0.8 CVRvars=3 conn=wye Vminpu=0.7 yearly=LS_PhaseC allocationfactor=0.8101
New "Load.637202100" phases=1 kV=0.24 bus1=g2000uk1100_n283753_sec_1.3 xfkVA=3.33054476 pf=0.98 status=variable model=4 CVRwatts=0.8 CVRvars=3 conn=wye Vminpu=0.7 yearly=LS_PhaseC allocationfactor=0.8101
New "Load.660202100" phases=1 kV=0.24 bus1=g2000tj2700_n274103_sec_4.3 xfkVA=5.26905224 pf=0.98 status=variable model=4 CVRwatts=0.8 CVRvars=3 conn=wye Vminpu=0.7 yearly=LS_PhaseC allocationfactor=0.8101
New "Load.495202100" phases=1 kV=0.24 bus1=g2000tj2700_n274103_sec_3.3 xfkVA=3.39126367 pf=0.98 status=variable model=4 CVRwatts=0.8 CVRvars=3 conn=wye Vminpu=0.7 yearly=LS_PhaseC allocationfactor=0.8101
New "Load.492202100" phases=1 kV=0.24 bus1=g2000tj2700_n274103_sec_2.3 xfkVA=2.16339234 pf=0.98 status=variable model=4 CVRwatts=0.8 CVRvars=3 conn=wye Vminpu=0.7 yearly=LS_PhaseC allocationfactor=0.8101
New "Load.142928100" phases=1 kV=0.24 bus1=g2000tj2700_n274103_sec_1.3 xfkVA=6.70831534 pf=0.98 status=variable model=4 CVRwatts=0.8 CVRvars=3 conn=wye Vminpu=0.7 yearly=LS_PhaseC allocationfactor=0.8101
New "Load.643202100" phases=1 kV=0.24 bus1=g2000uj0800_n283722_sec_3.3 xfkVA=5.19708909 pf=0.98 status=variable model=4 CVRwatts=0.8 CVRvars=3 conn=wye Vminpu=0.7 yearly=LS_PhaseC allocationfactor=0.8101
New "Load.505202100" phases=1 kV=0.24 bus1=g2000uj0800_n283722_sec_2.3 xfkVA=1.96099597 pf=0.98 status=variable model=4 CVRwatts=0.8 CVRvars=3 conn=wye Vminpu=0.7 yearly=LS_PhaseC allocationfactor=0.8101
New "Load.240450100" phases=1 kV=0.24 bus1=g2000uj0800_n283722_sec_1.3 xfkVA=4.21883995 pf=0.98 status=variable model=4 CVRwatts=0.8 CVRvars=3 conn=wye Vminpu=0.7 yearly=LS_PhaseC allocationfactor=0.8101
New "Load.84518100" phases=1 kV=0.24 bus1=g2000ui3100_n283702_sec_4.3 xfkVA=3.31248582 pf=0.98 status=variable model=4 CVRwatts=0.8 CVRvars=3 conn=wye Vminpu=0.7 yearly=LS_PhaseC allocationfactor=0.8101
New "Load.659202100" phases=1 kV=0.24 bus1=g2000ui3100_n283702_sec_3.3 xfkVA=2.3638806 pf=0.98 status=variable model=4 CVRwatts=0.8 CVRvars=3 conn=wye Vminpu=0.7 yearly=LS_PhaseC allocationfactor=0.8101
New "Load.606118100" phases=1 kV=0.24 bus1=g2000ui3100_n283702_sec_2.3 xfkVA=2.52320811 pf=0.98 status=variable model=4 CVRwatts=0.8 CVRvars=3 conn=wye Vminpu=0.7 yearly=LS_PhaseC allocationfactor=0.8101
New "Load.509202100" phases=1 kV=0.24 bus1=g2000ui3100_n283702_sec_1.3 xfkVA=3.46949634 pf=0.98 status=variable model=4 CVRwatts=0.8 CVRvars=3 conn=wye Vminpu=0.7 yearly=LS_PhaseC allocationfactor=0.8101
New "Load.745202100" phases=1 kV=0.24 bus1=g2000ui6400_n283679_sec_4.3 xfkVA=3.01570595 pf=0.98 status=variable model=4 CVRwatts=0.8 CVRvars=3 conn=wye Vminpu=0.7 yearly=LS_PhaseC allocationfactor=0.8101
New "Load.642202100" phases=1 kV=0.24 bus1=g2000ui6400_n283679_sec_3.3 xfkVA=1.33895082 pf=0.98 status=variable model=4 CVRwatts=0.8 CVRvars=3 conn=wye Vminpu=0.7 yearly=LS_PhaseC allocationfactor=0.8101
New "Load.583908100" phases=1 kV=0.24 bus1=g2000ui6400_n283679_sec_2.3 xfkVA=2.39727259 pf=0.98 status=variable model=4 CVRwatts=0.8 CVRvars=3 conn=wye Vminpu=0.7 yearly=LS_PhaseC allocationfactor=0.8101
New "Load.537202100" phases=1 kV=0.24 bus1=g2000ui6400_n283679_sec_1.3 xfkVA=3.30376301 pf=0.98 status=variable model=4 CVRwatts=0.8 CVRvars=3 conn=wye Vminpu=0.7 yearly=LS_PhaseC allocationfactor=0.8101
New "Load.981528100" phases=1 kV=0.24 bus1=g2000uh9800_n283647_sec_2.3 xfkVA=3.1753742 pf=0.98 status=variable model=4 CVRwatts=0.8 CVRvars=3 conn=wye Vminpu=0.7 yearly=LS_PhaseC allocationfactor=0.8101
New "Load.516028100" phases=1 kV=0.24 bus1=g2000uh9800_n283647_sec_1.3 xfkVA=3.22035118 pf=0.98 status=variable model=4 CVRwatts=0.8 CVRvars=3 conn=wye Vminpu=0.7 yearly=LS_PhaseC allocationfactor=0.8101
New "Load.622350100" phases=1 kV=0.24 bus1=g2100ch1800_n1385522_sec_8.3 xfkVA=4.07491364 pf=0.98 status=variable model=4 CVRwatts=0.8 CVRvars=3 conn=wye Vminpu=0.7 yearly=LS_PhaseC allocationfactor=0.8101
New "Load.585350100" phases=1 kV=0.24 bus1=g2100ch1800_n1385522_sec_7.3 xfkVA=2.30282095 pf=0.98 status=variable model=4 CVRwatts=0.8 CVRvars=3 conn=wye Vminpu=0.7 yearly=LS_PhaseC allocationfactor=0.8101
New "Load.348350100" phases=1 kV=0.24 bus1=g2100ch1800_n1385522_sec_6.3 xfkVA=4.50669257 pf=0.98 status=variable model=4 CVRwatts=0.8 CVRvars=3 conn=wye Vminpu=0.7 yearly=LS_PhaseC allocationfactor=0.8101
New "Load.346350100" phases=1 kV=0.24 bus1=g2100ch1800_n1385522_sec_5.3 xfkVA=3.27432354 pf=0.98 status=variable model=4 CVRwatts=0.8 CVRvars=3 conn=wye Vminpu=0.7 yearly=LS_PhaseC allocationfactor=0.8101
New "Load.20350100" phases=1 kV=0.24 bus1=g2100ch1800_n1385522_sec_4.3 xfkVA=4.09515328 pf=0.98 status=variable model=4 CVRwatts=0.8 CVRvars=3 conn=wye Vminpu=0.7 yearly=LS_PhaseC allocationfactor=0.8101
New "Load.107450100" phases=1 kV=0.24 bus1=g2100ch1800_n1385522_sec_3.3 xfkVA=3.2630793 pf=0.98 status=variable model=4 CVRwatts=0.8 CVRvars=3 conn=wye Vminpu=0.7 yearly=LS_PhaseC allocationfactor=0.8101
New "Load.106450100" phases=1 kV=0.24 bus1=g2100ch1800_n1385522_sec_2.3 xfkVA=5.94370682 pf=0.98 status=variable model=4 CVRwatts=0.8 CVRvars=3 conn=wye Vminpu=0.7 yearly=LS_PhaseC allocationfactor=0.8101
New "Load.102450100" phases=1 kV=0.24 bus1=g2100ch1800_n1385522_sec_1.3 xfkVA=2.06669185 pf=0.98 status=variable model=4 CVRwatts=0.8 CVRvars=3 conn=wye Vminpu=0.7 yearly=LS_PhaseC allocationfactor=0.8101
New "Load.940250100" phases=1 kV=0.24 bus1=g2100bh3900_n283665_sec_9.3 xfkVA=2.95498704 pf=0.98 status=variable model=4 CVRwatts=0.8 CVRvars=3 conn=wye Vminpu=0.7 yearly=LS_PhaseC allocationfactor=0.8101
New "Load.938250100" phases=1 kV=0.24 bus1=g2100bh3900_n283665_sec_8.3 xfkVA=6.24505253 pf=0.98 status=variable model=4 CVRwatts=0.8 CVRvars=3 conn=wye Vminpu=0.7 yearly=LS_PhaseC allocationfactor=0.8101
New "Load.929350100" phases=1 kV=0.24 bus1=g2100bh3900_n283665_sec_7.3 xfkVA=5.27354994 pf=0.98 status=variable model=4 CVRwatts=0.8 CVRvars=3 conn=wye Vminpu=0.7 yearly=LS_PhaseC allocationfactor=0.8101
New "Load.925250100" phases=1 kV=0.24 bus1=g2100bh3900_n283665_sec_6.3 xfkVA=9.37320092 pf=0.98 status=variable model=4 CVRwatts=0.8 CVRvars=3 conn=wye Vminpu=0.7 yearly=LS_PhaseC allocationfactor=0.8101
New "Load.755350100" phases=1 kV=0.24 bus1=g2100bh3900_n283665_sec_5.3 xfkVA=4.47295984 pf=0.98 status=variable model=4 CVRwatts=0.8 CVRvars=3 conn=wye Vminpu=0.7 yearly=LS_PhaseC allocationfactor=0.8101
New "Load.754350100" phases=1 kV=0.24 bus1=g2100bh3900_n283665_sec_4.3 xfkVA=7.96767055 pf=0.98 status=variable model=4 CVRwatts=0.8 CVRvars=3 conn=wye Vminpu=0.7 yearly=LS_PhaseC allocationfactor=0.8101
New "Load.609350100" phases=1 kV=0.24 bus1=g2100bh3900_n283665_sec_3.3 xfkVA=2.97072898 pf=0.98 status=variable model=4 CVRwatts=0.8 CVRvars=3 conn=wye Vminpu=0.7 yearly=LS_PhaseC allocationfactor=0.8101
New "Load.349350100" phases=1 kV=0.24 bus1=g2100bh3900_n283665_sec_2.3 xfkVA=3.28331894 pf=0.98 status=variable model=4 CVRwatts=0.8 CVRvars=3 conn=wye Vminpu=0.7 yearly=LS_PhaseC allocationfactor=0.8101
New "Load.250992200" phases=1 kV=0.24 bus1=g2100bh3900_n283665_sec_1.3 xfkVA=2.84254461 pf=0.98 status=variable model=4 CVRwatts=0.8 CVRvars=3 conn=wye Vminpu=0.7 yearly=LS_PhaseC allocationfactor=0.8101
New "Load.993350100" phases=1 kV=0.24 bus1=g2100ah6800_n283651_sec_7.3 xfkVA=3.43399179 pf=0.98 status=variable model=4 CVRwatts=0.8 CVRvars=3 conn=wye Vminpu=0.7 yearly=LS_PhaseC allocationfactor=0.8101
New "Load.975350100" phases=1 kV=0.24 bus1=g2100ah6800_n283651_sec_6.3 xfkVA=3.39576137 pf=0.98 status=variable model=4 CVRwatts=0.8 CVRvars=3 conn=wye Vminpu=0.7 yearly=LS_PhaseC allocationfactor=0.8101
New "Load.948350100" phases=1 kV=0.24 bus1=g2100ah6800_n283651_sec_5.3 xfkVA=2.96848013 pf=0.98 status=variable model=4 CVRwatts=0.8 CVRvars=3 conn=wye Vminpu=0.7 yearly=LS_PhaseC allocationfactor=0.8101
New "Load.900350100" phases=1 kV=0.24 bus1=g2100ah6800_n283651_sec_4.3 xfkVA=5.16560521 pf=0.98 status=variable model=4 CVRwatts=0.8 CVRvars=3 conn=wye Vminpu=0.7 yearly=LS_PhaseC allocationfactor=0.8101
New "Load.898350100" phases=1 kV=0.24 bus1=g2100ah6800_n283651_sec_3.3 xfkVA=8.40619602 pf=0.98 status=variable model=4 CVRwatts=0.8 CVRvars=3 conn=wye Vminpu=0.7 yearly=LS_PhaseC allocationfactor=0.8101
New "Load.888350100" phases=1 kV=0.24 bus1=g2100ah6800_n283651_sec_2.3 xfkVA=4.25032383 pf=0.98 status=variable model=4 CVRwatts=0.8 CVRvars=3 conn=wye Vminpu=0.7 yearly=LS_PhaseC allocationfactor=0.8101
New "Load.111450100" phases=1 kV=0.24 bus1=g2100ah6800_n283651_sec_1.3 xfkVA=4.08840673 pf=0.98 status=variable model=4 CVRwatts=0.8 CVRvars=3 conn=wye Vminpu=0.7 yearly=LS_PhaseC allocationfactor=0.8101
New "Load.970350100" phases=1 kV=0.24 bus1=g2000xh7500_n283636_sec_3.3 xfkVA=2.79756764 pf=0.98 status=variable model=4 CVRwatts=0.8 CVRvars=3 conn=wye Vminpu=0.7 yearly=LS_PhaseC allocationfactor=0.8101
New "Load.159450100" phases=1 kV=0.24 bus1=g2000xh7500_n283636_sec_2.3 xfkVA=5.58838874 pf=0.98 status=variable model=4 CVRwatts=0.8 CVRvars=3 conn=wye Vminpu=0.7 yearly=LS_PhaseC allocationfactor=0.8101
New "Load.158450100" phases=1 kV=0.24 bus1=g2000xh7500_n283636_sec_1.3 xfkVA=3.05168753 pf=0.98 status=variable model=4 CVRwatts=0.8 CVRvars=3 conn=wye Vminpu=0.7 yearly=LS_PhaseC allocationfactor=0.8101
New "Load.904350100" phases=1 kV=0.24 bus1=g2000xg5800_n283612_sec_4.3 xfkVA=2.59517127 pf=0.98 status=variable model=4 CVRwatts=0.8 CVRvars=3 conn=wye Vminpu=0.7 yearly=LS_PhaseC allocationfactor=0.8101
New "Load.669350100" phases=1 kV=0.24 bus1=g2000xg5800_n283612_sec_3.3 xfkVA=5.49618595 pf=0.98 status=variable model=4 CVRwatts=0.8 CVRvars=3 conn=wye Vminpu=0.7 yearly=LS_PhaseC allocationfactor=0.8101
New "Load.668350100" phases=1 kV=0.24 bus1=g2000xg5800_n283612_sec_2.3 xfkVA=4.17836067 pf=0.98 status=variable model=4 CVRwatts=0.8 CVRvars=3 conn=wye Vminpu=0.7 yearly=LS_PhaseC allocationfactor=0.8101
New "Load.30450100" phases=1 kV=0.24 bus1=g2000xg5800_n283612_sec_1.3 xfkVA=2.81780728 pf=0.98 status=variable model=4 CVRwatts=0.8 CVRvars=3 conn=wye Vminpu=0.7 yearly=LS_PhaseC allocationfactor=0.8101
New "Load.952350100" phases=1 kV=0.24 bus1=g2000xf7700_n283582_sec_4.3 xfkVA=5.50409099 pf=0.98 status=variable model=4 CVRwatts=0.8 CVRvars=3 conn=wye Vminpu=0.7 yearly=LS_PhaseC allocationfactor=0.8101
New "Load.903350100" phases=1 kV=0.24 bus1=g2000xf7700_n283582_sec_3.3 xfkVA=2.31590516 pf=0.98 status=variable model=4 CVRwatts=0.8 CVRvars=3 conn=wye Vminpu=0.7 yearly=LS_PhaseC allocationfactor=0.8101
New "Load.899350100" phases=1 kV=0.24 bus1=g2000xf7700_n283582_sec_2.3 xfkVA=4.33578008 pf=0.98 status=variable model=4 CVRwatts=0.8 CVRvars=3 conn=wye Vminpu=0.7 yearly=LS_PhaseC allocationfactor=0.8101
New "Load.790350100" phases=1 kV=0.24 bus1=g2000xf7700_n283582_sec_1.3 xfkVA=3.47167704 pf=0.98 status=variable model=4 CVRwatts=0.8 CVRvars=3 conn=wye Vminpu=0.7 yearly=LS_PhaseC allocationfactor=0.8101
New "Load.963350100" phases=1 kV=0.24 bus1=g2000xe9500_n283544_sec_8.3 xfkVA=5.903644 pf=0.98 status=variable model=4 CVRwatts=0.8 CVRvars=3 conn=wye Vminpu=0.7 yearly=LS_PhaseC allocationfactor=0.8101
New "Load.961350100" phases=1 kV=0.24 bus1=g2000xe9500_n283544_sec_7.3 xfkVA=5.92060501 pf=0.98 status=variable model=4 CVRwatts=0.8 CVRvars=3 conn=wye Vminpu=0.7 yearly=LS_PhaseC allocationfactor=0.8101
New "Load.955350100" phases=1 kV=0.24 bus1=g2000xe9500_n283544_sec_6.3 xfkVA=0.35715047 pf=0.98 status=variable model=4 CVRwatts=0.8 CVRvars=3 conn=wye Vminpu=0.7 yearly=LS_PhaseC allocationfactor=0.8101
New "Load.949350100" phases=1 kV=0.24 bus1=g2000xe9500_n283544_sec_5.3 xfkVA=5.34053837 pf=0.98 status=variable model=4 CVRwatts=0.8 CVRvars=3 conn=wye Vminpu=0.7 yearly=LS_PhaseC allocationfactor=0.8101
New "Load.932350100" phases=1 kV=0.24 bus1=g2000xe9500_n283544_sec_4.3 xfkVA=2.04428665 pf=0.98 status=variable model=4 CVRwatts=0.8 CVRvars=3 conn=wye Vminpu=0.7 yearly=LS_PhaseC allocationfactor=0.8101
New "Load.902350100" phases=1 kV=0.24 bus1=g2000xe9500_n283544_sec_3.3 xfkVA=3.24367257 pf=0.98 status=variable model=4 CVRwatts=0.8 CVRvars=3 conn=wye Vminpu=0.7 yearly=LS_PhaseC allocationfactor=0.8101
New "Load.820350100" phases=1 kV=0.24 bus1=g2000xe9500_n283544_sec_2.3 xfkVA=3.01591039 pf=0.98 status=variable model=4 CVRwatts=0.8 CVRvars=3 conn=wye Vminpu=0.7 yearly=LS_PhaseC allocationfactor=0.8101
New "Load.2450100" phases=1 kV=0.24 bus1=g2000xe9500_n283544_sec_1.3 xfkVA=3.52352928 pf=0.98 status=variable model=4 CVRwatts=0.8 CVRvars=3 conn=wye Vminpu=0.7 yearly=LS_PhaseC allocationfactor=0.8101
New "Load.842350100" phases=1 kV=0.24 bus1=g2100ah8200_n283618_sec_9.3 xfkVA=3.05168753 pf=0.98 status=variable model=4 CVRwatts=0.8 CVRvars=3 conn=wye Vminpu=0.7 yearly=LS_PhaseC allocationfactor=0.8101
New "Load.823350100" phases=1 kV=0.24 bus1=g2100ah8200_n283618_sec_8.3 xfkVA=3.27882124 pf=0.98 status=variable model=4 CVRwatts=0.8 CVRvars=3 conn=wye Vminpu=0.7 yearly=LS_PhaseC allocationfactor=0.8101
New "Load.821350100" phases=1 kV=0.24 bus1=g2100ah8200_n283618_sec_7.3 xfkVA=3.42724525 pf=0.98 status=variable model=4 CVRwatts=0.8 CVRvars=3 conn=wye Vminpu=0.7 yearly=LS_PhaseC allocationfactor=0.8101
New "Load.761350100" phases=1 kV=0.24 bus1=g2100ah8200_n283618_sec_6.3 xfkVA=5.91447179 pf=0.98 status=variable model=4 CVRwatts=0.8 CVRvars=3 conn=wye Vminpu=0.7 yearly=LS_PhaseC allocationfactor=0.8101
New "Load.637350100" phases=1 kV=0.24 bus1=g2100ah8200_n283618_sec_5.3 xfkVA=2.6199086 pf=0.98 status=variable model=4 CVRwatts=0.8 CVRvars=3 conn=wye Vminpu=0.7 yearly=LS_PhaseC allocationfactor=0.8101
New "Load.548350100" phases=1 kV=0.24 bus1=g2100ah8200_n283618_sec_4.3 xfkVA=5.76829663 pf=0.98 status=variable model=4 CVRwatts=0.8 CVRvars=3 conn=wye Vminpu=0.7 yearly=LS_PhaseC allocationfactor=0.8101
New "Load.428350100" phases=1 kV=0.24 bus1=g2100ah8200_n283618_sec_3.3 xfkVA=4.36726396 pf=0.98 status=variable model=4 CVRwatts=0.8 CVRvars=3 conn=wye Vminpu=0.7 yearly=LS_PhaseC allocationfactor=0.8101
New "Load.26350100" phases=1 kV=0.24 bus1=g2100ah8200_n283618_sec_2.3 xfkVA=6.49467472 pf=0.98 status=variable model=4 CVRwatts=0.8 CVRvars=3 conn=wye Vminpu=0.7 yearly=LS_PhaseC allocationfactor=0.8101
New "Load.25350100" phases=1 kV=0.24 bus1=g2100ah8200_n283618_sec_1.3 xfkVA=5.55240716 pf=0.98 status=variable model=4 CVRwatts=0.8 CVRvars=3 conn=wye Vminpu=0.7 yearly=LS_PhaseC allocationfactor=0.8101
New "Load.757350100" phases=1 kV=0.24 bus1=g2100ah2000_n283617_sec_6.3 xfkVA=2.85154001 pf=0.98 status=variable model=4 CVRwatts=0.8 CVRvars=3 conn=wye Vminpu=0.7 yearly=LS_PhaseC allocationfactor=0.8101
New "Load.694350100" phases=1 kV=0.24 bus1=g2100ah2000_n283617_sec_5.3 xfkVA=5.84925518 pf=0.98 status=variable model=4 CVRwatts=0.8 CVRvars=3 conn=wye Vminpu=0.7 yearly=LS_PhaseC allocationfactor=0.8101
New "Load.670350100" phases=1 kV=0.24 bus1=g2100ah2000_n283617_sec_4.3 xfkVA=4.17611183 pf=0.98 status=variable model=4 CVRwatts=0.8 CVRvars=3 conn=wye Vminpu=0.7 yearly=LS_PhaseC allocationfactor=0.8101
New "Load.638350100" phases=1 kV=0.24 bus1=g2100ah2000_n283617_sec_3.3 xfkVA=4.2997985 pf=0.98 status=variable model=4 CVRwatts=0.8 CVRvars=3 conn=wye Vminpu=0.7 yearly=LS_PhaseC allocationfactor=0.8101
New "Load.636350100" phases=1 kV=0.24 bus1=g2100ah2000_n283617_sec_2.3 xfkVA=4.39874784 pf=0.98 status=variable model=4 CVRwatts=0.8 CVRvars=3 conn=wye Vminpu=0.7 yearly=LS_PhaseC allocationfactor=0.8101
New "Load.427350100" phases=1 kV=0.24 bus1=g2100ah2000_n283617_sec_1.3 xfkVA=6.21356865 pf=0.98 status=variable model=4 CVRwatts=0.8 CVRvars=3 conn=wye Vminpu=0.7 yearly=LS_PhaseC allocationfactor=0.8101
New "Load.732350100" phases=1 kV=0.24 bus1=g2100ag2100_n283585_sec_11.3 xfkVA=3.30376301 pf=0.98 status=variable model=4 CVRwatts=0.8 CVRvars=3 conn=wye Vminpu=0.7 yearly=LS_PhaseC allocationfactor=0.8101
New "Load.728350100" phases=1 kV=0.24 bus1=g2100ag2100_n283585_sec_10.3 xfkVA=7.15583621 pf=0.98 status=variable model=4 CVRwatts=0.8 CVRvars=3 conn=wye Vminpu=0.7 yearly=LS_PhaseC allocationfactor=0.8101
New "Load.727350100" phases=1 kV=0.24 bus1=g2100ag2100_n283585_sec_9.3 xfkVA=3.31684722 pf=0.98 status=variable model=4 CVRwatts=0.8 CVRvars=3 conn=wye Vminpu=0.7 yearly=LS_PhaseC allocationfactor=0.8101
New "Load.677350100" phases=1 kV=0.24 bus1=g2100ag2100_n283585_sec_8.3 xfkVA=2.27665253 pf=0.98 status=variable model=4 CVRwatts=0.8 CVRvars=3 conn=wye Vminpu=0.7 yearly=LS_PhaseC allocationfactor=0.8101
New "Load.673350100" phases=1 kV=0.24 bus1=g2100ag2100_n283585_sec_7.3 xfkVA=2.7673104 pf=0.98 status=variable model=4 CVRwatts=0.8 CVRvars=3 conn=wye Vminpu=0.7 yearly=LS_PhaseC allocationfactor=0.8101
New "Load.672350100" phases=1 kV=0.24 bus1=g2100ag2100_n283585_sec_6.3 xfkVA=5.19879276 pf=0.98 status=variable model=4 CVRwatts=0.8 CVRvars=3 conn=wye Vminpu=0.7 yearly=LS_PhaseC allocationfactor=0.8101
New "Load.671350100" phases=1 kV=0.24 bus1=g2100ag2100_n283585_sec_5.3 xfkVA=2.39659112 pf=0.98 status=variable model=4 CVRwatts=0.8 CVRvars=3 conn=wye Vminpu=0.7 yearly=LS_PhaseC allocationfactor=0.8101
New "Load.651350100" phases=1 kV=0.24 bus1=g2100ag2100_n283585_sec_4.3 xfkVA=2.84581566 pf=0.98 status=variable model=4 CVRwatts=0.8 CVRvars=3 conn=wye Vminpu=0.7 yearly=LS_PhaseC allocationfactor=0.8101
New "Load.648350100" phases=1 kV=0.24 bus1=g2100ag2100_n283585_sec_3.3 xfkVA=5.65892081 pf=0.98 status=variable model=4 CVRwatts=0.8 CVRvars=3 conn=wye Vminpu=0.7 yearly=LS_PhaseC allocationfactor=0.8101
New "Load.353350100" phases=1 kV=0.24 bus1=g2100ag2100_n283585_sec_2.3 xfkVA=2.91559812 pf=0.98 status=variable model=4 CVRwatts=0.8 CVRvars=3 conn=wye Vminpu=0.7 yearly=LS_PhaseC allocationfactor=0.8101
New "Load.352350100" phases=1 kV=0.24 bus1=g2100ag2100_n283585_sec_1.3 xfkVA=3.14164147 pf=0.98 status=variable model=4 CVRwatts=0.8 CVRvars=3 conn=wye Vminpu=0.7 yearly=LS_PhaseC allocationfactor=0.8101
New "Load.980350100" phases=1 kV=0.24 bus1=g2100ae4800_n283558_sec_8.3 xfkVA=0.6585719 pf=0.98 status=variable model=4 CVRwatts=0.8 CVRvars=3 conn=wye Vminpu=0.7 yearly=LS_PhaseC allocationfactor=0.8101
New "Load.971350100" phases=1 kV=0.24 bus1=g2100ae4800_n283558_sec_7.3 xfkVA=3.37693767 pf=0.98 status=variable model=4 CVRwatts=0.8 CVRvars=3 conn=wye Vminpu=0.7 yearly=LS_PhaseC allocationfactor=0.8101
New "Load.934350100" phases=1 kV=0.24 bus1=g2100ae4800_n283558_sec_6.3 xfkVA=2.15453324 pf=0.98 status=variable model=4 CVRwatts=0.8 CVRvars=3 conn=wye Vminpu=0.7 yearly=LS_PhaseC allocationfactor=0.8101
New "Load.887350100" phases=1 kV=0.24 bus1=g2100ae4800_n283558_sec_5.3 xfkVA=5.93368922 pf=0.98 status=variable model=4 CVRwatts=0.8 CVRvars=3 conn=wye Vminpu=0.7 yearly=LS_PhaseC allocationfactor=0.8101
New "Load.886350100" phases=1 kV=0.24 bus1=g2100ae4800_n283558_sec_4.3 xfkVA=3.06509733 pf=0.98 status=variable model=4 CVRwatts=0.8 CVRvars=3 conn=wye Vminpu=0.7 yearly=LS_PhaseC allocationfactor=0.8101
New "Load.880350100" phases=1 kV=0.24 bus1=g2100ae4800_n283558_sec_3.3 xfkVA=3.27541389 pf=0.98 status=variable model=4 CVRwatts=0.8 CVRvars=3 conn=wye Vminpu=0.7 yearly=LS_PhaseC allocationfactor=0.8101
New "Load.879350100" phases=1 kV=0.24 bus1=g2100ae4800_n283558_sec_2.3 xfkVA=4.54022086 pf=0.98 status=variable model=4 CVRwatts=0.8 CVRvars=3 conn=wye Vminpu=0.7 yearly=LS_PhaseC allocationfactor=0.8101
New "Load.79450100" phases=1 kV=0.24 bus1=g2100ae4800_n283558_sec_1.3 xfkVA=2.7921704 pf=0.98 status=variable model=4 CVRwatts=0.8 CVRvars=3 conn=wye Vminpu=0.7 yearly=LS_PhaseC allocationfactor=0.8101
New "Load.890350100" phases=1 kV=0.24 bus1=g2100ae9900_n283556_sec_7.3 xfkVA=3.52885989 pf=0.98 status=variable model=4 CVRwatts=0.8 CVRvars=3 conn=wye Vminpu=0.7 yearly=LS_PhaseC allocationfactor=0.8101
New "Load.889350100" phases=1 kV=0.24 bus1=g2100ae9900_n283556_sec_6.3 xfkVA=5.28929188 pf=0.98 status=variable model=4 CVRwatts=0.8 CVRvars=3 conn=wye Vminpu=0.7 yearly=LS_PhaseC allocationfactor=0.8101
New "Load.882350100" phases=1 kV=0.24 bus1=g2100ae9900_n283556_sec_5.3 xfkVA=5.250645 pf=0.98 status=variable model=4 CVRwatts=0.8 CVRvars=3 conn=wye Vminpu=0.7 yearly=LS_PhaseC allocationfactor=0.8101
New "Load.881350100" phases=1 kV=0.24 bus1=g2100ae9900_n283556_sec_4.3 xfkVA=3.547517 pf=0.98 status=variable model=4 CVRwatts=0.8 CVRvars=3 conn=wye Vminpu=0.7 yearly=LS_PhaseC allocationfactor=0.8101
New "Load.789350100" phases=1 kV=0.24 bus1=g2100ae9900_n283556_sec_3.3 xfkVA=3.02572355 pf=0.98 status=variable model=4 CVRwatts=0.8 CVRvars=3 conn=wye Vminpu=0.7 yearly=LS_PhaseC allocationfactor=0.8101
New "Load.788350100" phases=1 kV=0.24 bus1=g2100ae9900_n283556_sec_2.3 xfkVA=2.92383632 pf=0.98 status=variable model=4 CVRwatts=0.8 CVRvars=3 conn=wye Vminpu=0.7 yearly=LS_PhaseC allocationfactor=0.8101
New "Load.762350100" phases=1 kV=0.24 bus1=g2100ae9900_n283556_sec_1.3 xfkVA=2.90422732 pf=0.98 status=variable model=4 CVRwatts=0.8 CVRvars=3 conn=wye Vminpu=0.7 yearly=LS_PhaseC allocationfactor=0.8101
New "Load.763350100" phases=1 kV=0.24 bus1=g2100af5900_n283577_sec_9.3 xfkVA=3.33211214 pf=0.98 status=variable model=4 CVRwatts=0.8 CVRvars=3 conn=wye Vminpu=0.7 yearly=LS_PhaseC allocationfactor=0.8101
New "Load.759350100" phases=1 kV=0.24 bus1=g2100af5900_n283577_sec_8.3 xfkVA=5.22496118 pf=0.98 status=variable model=4 CVRwatts=0.8 CVRvars=3 conn=wye Vminpu=0.7 yearly=LS_PhaseC allocationfactor=0.8101
New "Load.730350100" phases=1 kV=0.24 bus1=g2100af5900_n283577_sec_7.3 xfkVA=2.97883847 pf=0.98 status=variable model=4 CVRwatts=0.8 CVRvars=3 conn=wye Vminpu=0.7 yearly=LS_PhaseC allocationfactor=0.8101
New "Load.639350100" phases=1 kV=0.24 bus1=g2100af5900_n283577_sec_6.3 xfkVA=4.09740213 pf=0.98 status=variable model=4 CVRwatts=0.8 CVRvars=3 conn=wye Vminpu=0.7 yearly=LS_PhaseC allocationfactor=0.8101
New "Load.351350100" phases=1 kV=0.24 bus1=g2100af5900_n283577_sec_5.3 xfkVA=2.97665776 pf=0.98 status=variable model=4 CVRwatts=0.8 CVRvars=3 conn=wye Vminpu=0.7 yearly=LS_PhaseC allocationfactor=0.8101
New "Load.34350100" phases=1 kV=0.24 bus1=g2100af5900_n283577_sec_4.3 xfkVA=5.53462081 pf=0.98 status=variable model=4 CVRwatts=0.8 CVRvars=3 conn=wye Vminpu=0.7 yearly=LS_PhaseC allocationfactor=0.8101
New "Load.33350100" phases=1 kV=0.24 bus1=g2100af5900_n283577_sec_3.3 xfkVA=3.43460511 pf=0.98 status=variable model=4 CVRwatts=0.8 CVRvars=3 conn=wye Vminpu=0.7 yearly=LS_PhaseC allocationfactor=0.8101
New "Load.32350100" phases=1 kV=0.24 bus1=g2100af5900_n283577_sec_2.3 xfkVA=3.17946302 pf=0.98 status=variable model=4 CVRwatts=0.8 CVRvars=3 conn=wye Vminpu=0.7 yearly=LS_PhaseC allocationfactor=0.8101
New "Load.31350100" phases=1 kV=0.24 bus1=g2100af5900_n283577_sec_1.3 xfkVA=5.94595567 pf=0.98 status=variable model=4 CVRwatts=0.8 CVRvars=3 conn=wye Vminpu=0.7 yearly=LS_PhaseC allocationfactor=0.8101
New "Load.360350100" phases=1 kV=0.24 bus1=g2100ag8700_n283594_sec_6.3 xfkVA=4.21747701 pf=0.98 status=variable model=4 CVRwatts=0.8 CVRvars=3 conn=wye Vminpu=0.7 yearly=LS_PhaseC allocationfactor=0.8101
New "Load.358350100" phases=1 kV=0.24 bus1=g2100ag8700_n283594_sec_5.3 xfkVA=4.69505067 pf=0.98 status=variable model=4 CVRwatts=0.8 CVRvars=3 conn=wye Vminpu=0.7 yearly=LS_PhaseC allocationfactor=0.8101
New "Load.357350100" phases=1 kV=0.24 bus1=g2100ag8700_n283594_sec_4.3 xfkVA=1.87104202 pf=0.98 status=variable model=4 CVRwatts=0.8 CVRvars=3 conn=wye Vminpu=0.7 yearly=LS_PhaseC allocationfactor=0.8101
New "Load.30350100" phases=1 kV=0.24 bus1=g2100ag8700_n283594_sec_3.3 xfkVA=3.45198258 pf=0.98 status=variable model=4 CVRwatts=0.8 CVRvars=3 conn=wye Vminpu=0.7 yearly=LS_PhaseC allocationfactor=0.8101
New "Load.29350100" phases=1 kV=0.24 bus1=g2100ag8700_n283594_sec_2.3 xfkVA=6.11686816 pf=0.98 status=variable model=4 CVRwatts=0.8 CVRvars=3 conn=wye Vminpu=0.7 yearly=LS_PhaseC allocationfactor=0.8101
New "Load.27350100" phases=1 kV=0.24 bus1=g2100ag8700_n283594_sec_1.3 xfkVA=4.70009355 pf=0.98 status=variable model=4 CVRwatts=0.8 CVRvars=3 conn=wye Vminpu=0.7 yearly=LS_PhaseC allocationfactor=0.8101
New "Load.591350100" phases=1 kV=0.24 bus1=g2100bg5600_n283598_sec_6.3 xfkVA=5.84646115 pf=0.98 status=variable model=4 CVRwatts=0.8 CVRvars=3 conn=wye Vminpu=0.7 yearly=LS_PhaseC allocationfactor=0.8101
New "Load.590350100" phases=1 kV=0.24 bus1=g2100bg5600_n283598_sec_5.3 xfkVA=5.80202936 pf=0.98 status=variable model=4 CVRwatts=0.8 CVRvars=3 conn=wye Vminpu=0.7 yearly=LS_PhaseC allocationfactor=0.8101
New "Load.589350100" phases=1 kV=0.24 bus1=g2100bg5600_n283598_sec_4.3 xfkVA=5.44896013 pf=0.98 status=variable model=4 CVRwatts=0.8 CVRvars=3 conn=wye Vminpu=0.7 yearly=LS_PhaseC allocationfactor=0.8101
New "Load.584350100" phases=1 kV=0.24 bus1=g2100bg5600_n283598_sec_3.3 xfkVA=3.34955775 pf=0.98 status=variable model=4 CVRwatts=0.8 CVRvars=3 conn=wye Vminpu=0.7 yearly=LS_PhaseC allocationfactor=0.8101
New "Load.549350100" phases=1 kV=0.24 bus1=g2100bg5600_n283598_sec_2.3 xfkVA=2.10042458 pf=0.98 status=variable model=4 CVRwatts=0.8 CVRvars=3 conn=wye Vminpu=0.7 yearly=LS_PhaseC allocationfactor=0.8101
...
